<?xml version="1.0" encoding="UTF-8"?>

<routes>

<vType id="car" sigma="0.5" vClass="passenger" guiShape="passenger" />

<route  id="route0" edges="gneE0 gneE1"/>
<route  id="route1" edges="gneE0 gneE2" />
<route  id="route2" edges="gneE0 gneE3" />

<route  id="route3" edges="gneE7 gneE3" />
<route  id="route4" edges="gneE7 gneE2" />
<route  id="route5" edges="gneE7 gneE5" />

<route  id="route6" edges="gneE6 gneE5" />
<route  id="route7" edges="gneE6 gneE3" />
<route  id="route8" edges="gneE6 gneE1" />

<route  id="route9" edges="gneE8 gneE2" />
<route  id="route10" edges="gneE8 gneE1" />
<route  id="route11" edges="gneE8 gneE5" />

<flow id="flow1" begin="0" end="1000" period="15" route="route0" />
<flow id="flow2" begin="0" end="1000" period="30" route="route1" />
<flow id="flow3" begin="0" end="1000" period="45" route="route2" />


<flow id="flow4" begin="0" end="1000" period="15" route="route3" />
<flow id="flow5" begin="0" end="1000" period="30" route="route4" />
<flow id="flow6" begin="0" end="1000" period="45" route="route5" />


<flow id="flow7" begin="0" end="1000" period="15" route="route6" />
<flow id="flow8" begin="0" end="1000" period="30" route="route7" />
<flow id="flow9" begin="0" end="1000" period="45" route="route8" />


<flow id="flow10" begin="0" end="1000" period="15" route="route9" />
<flow id="flow11" begin="0" end="1000" period="30" route="route10" />
<flow id="flow12" begin="0" end="1000" period="45" route="route11" />

</routes>