<?xml version="1.0" encoding="UTF-8"?>

<routes>

<vType id="car" sigma="0.5" vClass="passenger" guiShape="passenger" />

<route  id="route0" edges="gneE0 gneE2"/>
<route  id="route1" edges="gneE3 gneE5"/>
<route  id="route2" edges="gneE0 gneE7"/>
<route  id="route3" edges="gneE3 gneE4"/>

<flow id="flow1" begin="0" end="1000" period="15" route="route0" />
<flow id="flow2" begin="0" end="1000" period="15" route="route1" />
<flow id="flow3" begin="0" end="1000" period="15" route="route2" />
<flow id="flow4" begin="0" end="1000" period="15" route="route3" />

</routes>