<?xml version="1.0" encoding="UTF-8"?>

<!-- generated on 25.05.2018 08:20:14 by Netedit Version 0.25.0
<?xml version="1.0" encoding="UTF-8"?>

<configuration xmlns:xsi="http://www.w3.org/2001/XMLSchema-instance" xsi:noNamespaceSchemaLocation="http://sumo.dlr.de/xsd/netedit.exeConfiguration.xsd">

    <input>
        <sumo-net-file value="C:\Users\desi_ra\Desktop\Neuer%20Ordner\sample.net.xml"/>
    </input>

    <output>
        <output-file value="C:\Users\desi_ra\Desktop\Neuer%20Ordner\sample.net.xml"/>
    </output>

    <processing>
        <no-turnarounds value="true"/>
        <offset.disable-normalization value="true"/>
        <lefthand value="false"/>
        <junctions.corner-detail value="0"/>
    </processing>

</configuration>
-->

<net version="0.25" xmlns:xsi="http://www.w3.org/2001/XMLSchema-instance" xsi:noNamespaceSchemaLocation="http://sumo.dlr.de/xsd/net_file.xsd">

    <location netOffset="0.00,0.00" convBoundary="-93.01,-40.89,168.55,140.12" origBoundary="-10000000000.00,-10000000000.00,10000000000.00,10000000000.00" projParameter="!"/>

    <edge id=":1_0" function="internal">
        <lane id=":1_0_0" index="0" speed="13.89" length="5.59" shape="30.97,72.15 30.72,70.62 30.06,69.53 28.99,68.87 27.50,68.63"/>
    </edge>
    <edge id=":1_1" function="internal">
        <lane id=":1_1_0" index="0" speed="13.89" length="16.41" shape="34.27,72.08 34.15,67.21 34.07,63.87 34.03,60.54 34.03,55.67"/>
    </edge>
    <edge id=":1_2" function="internal">
        <lane id=":1_2_0" index="0" speed="13.89" length="13.95" shape="34.27,72.08 34.97,66.28 37.36,62.13 40.20,60.41"/>
    </edge>
    <edge id=":1_14" function="internal">
        <lane id=":1_14_0" index="0" speed="13.89" length="7.30" shape="40.20,60.41 41.45,59.65 47.23,58.82"/>
    </edge>
    <edge id=":1_3" function="internal">
        <lane id=":1_3_0" index="0" speed="13.89" length="5.03" shape="47.23,68.72 45.86,68.92 44.90,69.51 44.33,70.48 44.16,71.86"/>
    </edge>
    <edge id=":1_4" function="internal">
        <lane id=":1_4_0" index="0" speed="13.89" length="19.68" shape="47.23,65.42 41.38,65.42 37.38,65.42 33.38,65.39 27.54,65.33"/>
        <lane id=":1_4_1" index="1" speed="13.89" length="19.68" shape="47.23,62.12 41.39,62.12 37.40,62.12 33.41,62.09 27.57,62.03"/>
    </edge>
    <edge id=":1_6" function="internal">
        <lane id=":1_6_0" index="0" speed="13.89" length="16.23" shape="47.23,62.12 41.45,61.72 37.32,60.51 34.84,58.49 34.03,55.67"/>
    </edge>
    <edge id=":1_7" function="internal">
        <lane id=":1_7_0" index="0" speed="13.89" length="5.18" shape="43.93,55.71 44.13,57.07 44.75,58.04 45.78,58.63 47.23,58.82"/>
    </edge>
    <edge id=":1_8" function="internal">
        <lane id=":1_8_0" index="0" speed="13.89" length="16.65" shape="43.93,55.71 43.41,60.56 42.32,63.82 41.26,67.07 40.86,71.93"/>
        <lane id=":1_8_1" index="1" speed="13.89" length="16.65" shape="40.63,55.69 40.11,60.58 39.02,63.85 37.96,67.12 37.57,72.00"/>
    </edge>
    <edge id=":1_10" function="internal">
        <lane id=":1_10_0" index="0" speed="13.89" length="2.41" shape="37.33,55.68 36.81,58.03"/>
    </edge>
    <edge id=":1_15" function="internal">
        <lane id=":1_15_0" index="0" speed="13.89" length="10.73" shape="36.81,58.03 36.71,58.50 34.88,60.50 31.83,61.68 27.57,62.03"/>
    </edge>
    <edge id=":1_11" function="internal">
        <lane id=":1_11_0" index="0" speed="13.89" length="5.01" shape="27.61,58.73 28.97,58.55 29.94,57.98 30.53,57.02 30.73,55.66"/>
    </edge>
    <edge id=":1_12" function="internal">
        <lane id=":1_12_0" index="0" speed="13.89" length="19.63" shape="27.61,58.73 32.08,58.77 37.42,58.80 42.76,58.82 47.23,58.82"/>
    </edge>
    <edge id=":1_13" function="internal">
        <lane id=":1_13_0" index="0" speed="13.89" length="18.66" shape="27.61,58.73 31.85,59.60 34.93,62.10 36.83,66.24 37.57,72.00"/>
    </edge>

    <edge id="gneE0" from="0" to="1" priority="1">
        <lane id="gneE0_0" index="0" speed="13.89" length="120.61" shape="-92.99,57.46 27.61,58.73"/>
    </edge>
    <edge id="gneE1" from="2" to="1" priority="1">
        <lane id="gneE1_0" index="0" speed="13.89" length="96.57" shape="44.30,-40.86 43.93,55.71"/>
        <lane id="gneE1_1" index="1" speed="13.89" length="96.57" shape="41.00,-40.87 40.63,55.69"/>
        <lane id="gneE1_2" index="2" speed="13.89" length="96.57" shape="37.70,-40.88 37.33,55.68"/>
    </edge>
    <edge id="gneE2" from="1" to="3" priority="1">
        <lane id="gneE2_0" index="0" speed="13.89" length="121.32" shape="47.23,58.82 168.55,58.84"/>
    </edge>
    <edge id="gneE3" from="3" to="1" priority="1">
        <lane id="gneE3_0" index="0" speed="13.89" length="121.32" shape="168.55,68.74 47.23,68.72"/>
        <lane id="gneE3_1" index="1" speed="13.89" length="121.32" shape="168.55,65.44 47.23,65.42"/>
        <lane id="gneE3_2" index="2" speed="13.89" length="121.32" shape="168.55,62.14 47.23,62.12"/>
    </edge>
    <edge id="gneE4" from="1" to="4" priority="1">
        <lane id="gneE4_0" index="0" speed="13.89" length="68.10" shape="44.16,71.86 45.67,139.94"/>
        <lane id="gneE4_1" index="1" speed="13.89" length="68.10" shape="40.86,71.93 42.37,140.01"/>
        <lane id="gneE4_2" index="2" speed="13.89" length="68.10" shape="37.57,72.00 39.07,140.08"/>
    </edge>
    <edge id="gneE5" from="1" to="0" priority="1">
        <lane id="gneE5_0" index="0" speed="13.89" length="120.61" shape="27.50,68.63 -93.10,67.36"/>
        <lane id="gneE5_1" index="1" speed="13.89" length="120.61" shape="27.54,65.33 -93.06,64.06"/>
        <lane id="gneE5_2" index="2" speed="13.89" length="120.61" shape="27.57,62.03 -93.03,60.76"/>
    </edge>
    <edge id="gneE6" from="4" to="1" priority="1">
        <lane id="gneE6_0" index="0" speed="13.89" length="68.10" shape="32.47,140.23 30.97,72.15"/>
        <lane id="gneE6_1" index="1" speed="13.89" length="68.10" shape="35.77,140.16 34.27,72.08"/>
    </edge>
    <edge id="gneE7" from="1" to="2" priority="1">
        <lane id="gneE7_0" index="0" speed="13.89" length="96.57" shape="30.73,55.66 31.10,-40.91"/>
        <lane id="gneE7_1" index="1" speed="13.89" length="96.57" shape="34.03,55.67 34.40,-40.90"/>
    </edge>

    <tlLogic id="gneJ1" type="static" programID="0" offset="0">
        <phase duration="31" state="rrrGGGGGgggrrr"/>
        <phase duration="4" state="rrryyyyygggrrr"/>
        <phase duration="6" state="rrrrrrrrGGGrrr"/>
        <phase duration="4" state="rrrrrrrryyyrrr"/>
        <phase duration="31" state="GggrrrrrrrrGGG"/>
        <phase duration="4" state="yggrrrrrrrryyy"/>
        <phase duration="6" state="rGGrrrrrrrrrrr"/>
        <phase duration="4" state="ryyrrrrrrrrrrr"/>
    </tlLogic>

    <junction id="0" type="dead_end" x="-93.01" y="59.11" incLanes="gneE5_0 gneE5_1 gneE5_2" intLanes="" shape="-93.01,59.06 -92.98,55.86 -93.11,68.96 -93.01,59.16"/>
    <junction id="1" type="traffic_light" x="35.66" y="60.47" incLanes="gneE6_0 gneE6_1 gneE3_0 gneE3_1 gneE3_2 gneE1_0 gneE1_1 gneE1_2 gneE0_0" intLanes=":1_0_0 :1_1_0 :1_14_0 :1_3_0 :1_4_0 :1_4_1 :1_6_0 :1_7_0 :1_8_0 :1_8_1 :1_15_0 :1_11_0 :1_12_0 :1_13_0" shape="29.37,72.18 45.76,71.82 47.23,70.32 47.23,57.22 45.53,55.71 29.13,55.65 27.62,57.13 27.48,70.23">
        <request index="0" response="00010000110000" foes="00010000110000" cont="0"/>
        <request index="1" response="11110001110000" foes="11110001110000" cont="0"/>
        <request index="2" response="11001111110000" foes="11001111110000" cont="1"/>
        <request index="3" response="00000000000000" foes="10001100000000" cont="0"/>
        <request index="4" response="00000000000000" foes="10011100000111" cont="0"/>
        <request index="5" response="00000000000000" foes="10011100000111" cont="0"/>
        <request index="6" response="00000000000000" foes="01111100000110" cont="0"/>
        <request index="7" response="00000000000000" foes="01000000000100" cont="0"/>
        <request index="8" response="00000001111000" foes="11000001111100" cont="0"/>
        <request index="9" response="00000001111000" foes="11000001111100" cont="0"/>
        <request index="10" response="00000001110000" foes="11000001110011" cont="1"/>
        <request index="11" response="00000001000000" foes="00000001000010" cont="0"/>
        <request index="12" response="00011111000000" foes="00011111000110" cont="0"/>
        <request index="13" response="00011100111000" foes="00011100111110" cont="0"/>
    </junction>
    <junction id="2" type="dead_end" x="36.05" y="-40.89" incLanes="gneE7_0 gneE7_1" intLanes="" shape="36.10,-40.89 45.90,-40.85 29.50,-40.92 36.00,-40.89"/>
    <junction id="3" type="dead_end" x="168.55" y="60.49" incLanes="gneE2_0" intLanes="" shape="168.55,60.54 168.55,70.34 168.55,57.24 168.55,60.44"/>
    <junction id="4" type="dead_end" x="37.42" y="140.12" incLanes="gneE4_0 gneE4_1 gneE4_2" intLanes="" shape="37.37,140.12 30.87,140.26 47.27,139.90 37.47,140.12"/>

    <junction id=":1_14_0" type="internal" x="40.20" y="60.41" incLanes=":1_2_0 gneE0_0" intLanes=":1_4_0 :1_4_1 :1_6_0 :1_7_0 :1_8_0 :1_8_1 :1_12_0 :1_13_0"/>
    <junction id=":1_15_0" type="internal" x="36.81" y="58.03" incLanes=":1_10_0 gneE3_1 gneE3_2" intLanes=":1_0_0 :1_1_0 :1_4_0 :1_4_1 :1_6_0 :1_12_0 :1_13_0"/>

    <connection from="gneE0" to="gneE7" fromLane="0" toLane="0" via=":1_11_0" tl="gneJ1" linkIndex="11" dir="r" state="o"/>
    <connection from="gneE0" to="gneE2" fromLane="0" toLane="0" via=":1_12_0" tl="gneJ1" linkIndex="12" dir="s" state="o"/>
    <connection from="gneE0" to="gneE4" fromLane="0" toLane="2" via=":1_13_0" tl="gneJ1" linkIndex="13" dir="l" state="o"/>
    <connection from="gneE1" to="gneE2" fromLane="0" toLane="0" via=":1_7_0" tl="gneJ1" linkIndex="7" dir="r" state="o"/>
    <connection from="gneE1" to="gneE4" fromLane="0" toLane="1" via=":1_8_0" tl="gneJ1" linkIndex="8" dir="s" state="o"/>
    <connection from="gneE1" to="gneE4" fromLane="1" toLane="2" via=":1_8_1" tl="gneJ1" linkIndex="9" dir="s" state="o"/>
    <connection from="gneE1" to="gneE5" fromLane="2" toLane="2" via=":1_10_0" tl="gneJ1" linkIndex="10" dir="l" state="o"/>
    <connection from="gneE3" to="gneE4" fromLane="0" toLane="0" via=":1_3_0" tl="gneJ1" linkIndex="3" dir="r" state="o"/>
    <connection from="gneE3" to="gneE5" fromLane="1" toLane="1" via=":1_4_0" tl="gneJ1" linkIndex="4" dir="s" state="o"/>
    <connection from="gneE3" to="gneE5" fromLane="2" toLane="2" via=":1_4_1" tl="gneJ1" linkIndex="5" dir="s" state="o"/>
    <connection from="gneE3" to="gneE7" fromLane="2" toLane="1" via=":1_6_0" tl="gneJ1" linkIndex="6" dir="l" state="o"/>
    <connection from="gneE6" to="gneE5" fromLane="0" toLane="0" via=":1_0_0" tl="gneJ1" linkIndex="0" dir="r" state="o"/>
    <connection from="gneE6" to="gneE7" fromLane="1" toLane="1" via=":1_1_0" tl="gneJ1" linkIndex="1" dir="s" state="o"/>
    <connection from="gneE6" to="gneE2" fromLane="1" toLane="0" via=":1_2_0" tl="gneJ1" linkIndex="2" dir="l" state="o"/>

    <connection from=":1_0" to="gneE5" fromLane="0" toLane="0" dir="s" state="M"/>
    <connection from=":1_1" to="gneE7" fromLane="0" toLane="1" dir="s" state="M"/>
    <connection from=":1_2" to="gneE2" fromLane="0" toLane="0" via=":1_14_0" dir="s" state="m"/>
    <connection from=":1_14" to="gneE2" fromLane="0" toLane="0" dir="s" state="M"/>
    <connection from=":1_3" to="gneE4" fromLane="0" toLane="0" dir="s" state="M"/>
    <connection from=":1_4" to="gneE5" fromLane="0" toLane="1" dir="s" state="M"/>
    <connection from=":1_4" to="gneE5" fromLane="1" toLane="2" dir="s" state="M"/>
    <connection from=":1_6" to="gneE7" fromLane="0" toLane="1" dir="s" state="M"/>
    <connection from=":1_7" to="gneE2" fromLane="0" toLane="0" dir="s" state="M"/>
    <connection from=":1_8" to="gneE4" fromLane="0" toLane="1" dir="s" state="M"/>
    <connection from=":1_8" to="gneE4" fromLane="1" toLane="2" dir="s" state="M"/>
    <connection from=":1_10" to="gneE5" fromLane="0" toLane="2" via=":1_15_0" dir="s" state="m"/>
    <connection from=":1_15" to="gneE5" fromLane="0" toLane="2" dir="s" state="M"/>
    <connection from=":1_11" to="gneE7" fromLane="0" toLane="0" dir="s" state="M"/>
    <connection from=":1_12" to="gneE2" fromLane="0" toLane="0" dir="s" state="M"/>
    <connection from=":1_13" to="gneE4" fromLane="0" toLane="2" dir="s" state="M"/>

</net>
